power-flow-agent/results/ieee14/2026-09-21/gpt-5.6-sol/pfagent/traces/15_case14-multistep-018-s0.transcript.txt
==============================================================================
TRANSCRIPT  pfagent  |  openrouter:openai/gpt-5.6-sol  |  case14  |  case14-multistep-018-s0  run 0
==============================================================================
date: 2026-09-21   seed: 0   difficulty: multistep   tool variant: load_split

[system]   (hash 7da5e2a37ec4, from methods/pfagent/method.json prompt_files)
You are a power system power-flow analysis assistant. You help the user complete power system analysis tasks from natural-language requests.

## What you can do
You complete tasks by calling tool functions:
1. Load an IEEE standard test system (14, 30, 57, 118, 300 buses)
2. Run AC power flow
3. Modify the load at a bus and re-solve
4. Disconnect or reconnect a line and re-solve
5. Query the network status
6. Run an N-1 contingency analysis (disconnect branches one at a time and rank the worst cases)
7. Generate remedial-action suggestions (what-if load shedding or voltage adjustment) to reduce violation risk

## Key rules
- Never fabricate any numerical result. Every voltage, power, loss, or loading value must come from a tool return value.
- If a tool reports an error or a non-converged power flow, say so explicitly and do not report numbers for that state.
- If the request is ambiguous, state the interpretation you are using.
- Bus and line identifiers in the request are MATPOWER 1-based ids; pass them to the tools as given, unless the request itself states a different indexing convention for that identifier (e.g. "(0-based)"), in which case convert it to the MATPOWER 1-based id before calling any tool.
- After a network modification, re-solve before reporting any value.
- Always reply in English.

## Reply format
After each analysis, reply in this structure:
1. One-sentence summary
2. Key numbers (total load, total generation, total losses, voltage range) taken from the tool outputs
3. Violations, if any
4. Suggested next step

[user]
Load the IEEE 14-bus system, disconnect the line between bus 4 and bus 5, then rerun the power flow, then list every line whose loading is above 90%.

[tools available to the model]   (function-calling schema, --tool-variant load_split; enum values and defaults as sent)
  load_case(case_name: string* in {case14, case30, case57, case118, case300})  Load IEEE test case.
  run_powerflow()  Run power flow on current case.
  disconnect_line(from_bus: integer*, to_bus: integer*)  Disconnect line/branch between two buses and recompute.
  reconnect_line(from_bus: integer*, to_bus: integer*)  Reconnect line/branch between two buses and recompute.
  get_most_loaded_branch()  Get most loaded branch.
  run_n1_contingency(top_k: integer (default 5), criteria: string in {max_violations, max_overload, min_voltage} (default max_violations), max_candidates: integer (default 0))  Run N-1 contingency analysis.
  recommend_remedial_actions(max_actions: integer (default 5), allow_load_shed: boolean (default True), allow_voltage_control: boolean (default True), include_best_comparison: boolean (default True))  Recommend remedial actions.
  apply_remedial_action(action_index: integer*, confirmed: boolean (default False))  Apply one remedial action by index.
  get_status()  Get current network status.
  generate_plot(plot_type: string* in {voltage_heatmap, flow_diagram, violation_overview, comparison})  Generate one plot.
  set_active_load(bus_id: integer*, p_mw: number*)  Set a bus's active load (MW) and recompute. Use this when the request states only an active-power value. This tool has no reactive-power argument: the bus's present reactive load is always left unchanged. If the request also states a reactive-power value, use set_load instead.
  set_load(bus_id: integer*, p_mw: number*, q_mvar: number*)  Set a bus's active and reactive load (MW, Mvar) and recompute. Use this only when the request states both values. If the request states only an active-power value, use set_active_load instead -- do not invent a reactive-power value here to fill this in.

--- round 1 ---
[assistant]   (950 in / 54 out tokens, 2.2 s)
(no text)
tool_call  load_case(case_name="case14")
[tool load_case]   (gate: not applied)
{"case_name": "case14", "n_buses": 14, "n_generators": 5, "n_lines": 20, "n_loads": 11, "total_load_mw": 257.68479600863566, "total_gen_capacity_mw": 772.4000000000001}

--- round 2 ---
[assistant]   (1051 in / 24 out tokens, 1.7 s)
(no text)
tool_call  disconnect_line(from_bus=4, to_bus=5)
[tool disconnect_line]   (gate: pass)
{"case_name": "case14", "converged": true, "bus_voltages": [{"bus_id": 1, "vm_pu": 1.06, "va_deg": 0.0, "is_violation": true, "violation_type": "overvoltage"}, {"bus_id": 2, "vm_pu": 1.045, "va_deg": -5.681731966638622, "is_violation": false, "violation_type": null}, {"bus_id": 3, "vm_pu": 1.01, "va_deg": -15.08547947871446, "is_violation": false, "violation_type": null}, {"bus_id": 4, "vm_pu": 1.0133920718015985, "va_deg": -14.296921577503323, "is_violation": false, "violation_type": null}, {"bus_id": 5, "vm_pu": 1.0199560159865828, "va_deg": -6.579982171116055, "is_violation": false, "violation_type": null}, {"bus_id": 6, "vm_pu": 1.0699999999999998, "va_deg": -14.104433561916972, "is_violation": true, "violation_type": "overvoltage"}, {"bus_id": 7, "vm_pu": 1.056167923239874, "va_deg": -16.416735992907814, "is_violation": true, "violation_type": "overvoltage"}, {"bus_id": 8, "vm_pu": 1.09, "va_deg": -16.416735992907807, "is_violation": true, "violation_type": "overvoltage"}, {"bus_id": 9, "vm_pu": 1.0461168779722951, "va_deg": -17.52112145958209, "is_violation": false, "violation_type": null}, {"bus_id": 10, "vm_pu": 1.0423436165259659, "va_deg": -17.192999816967905, "is_violation": false, "violation_type": null}, {"bus_id": 11, "vm_pu": 1.0519150154911188, "va_deg": -15.779844959238803, "is_violation": true, "violation_type": "overvoltage"}, {"bus_id": 12, "vm_pu": 1.0540057781836327, "va_deg": -15.194643334393785, "is_violation": true, "violation_type": "overvoltage"}, {"bus_id": 13, "vm_pu": 1.0475620234562137, "va_deg": -15.451968234985822, "is_violation": false, "violation_type": null}, {"bus_id": 14, "vm_pu": 1.0267386559802785, "va_deg": -17.71868001546817, "is_violation": false, "violation_type": null}], "line_flows": [{"line_id": 0, "from_bus": 1, "to_bus": 2, "p_from_mw": 178.0518253081255, "q_from_mvar": -25.214943392596073, "loading_percent": 1.7136304452293578, "is_violation": false}, {"line_id": 1, "from_bus": 1, "to_bus": 5, "p_from_mw": 57.55218398169728, "q_from_mvar": 5.518263414295722, "loading_percent": 0.5553691857554582, "is_violation": false}, {"line_id": 2, "from_bus": 2, "to_bus": 3, "p_from_mw": 88.22467430446355, "q_from_mvar": 2.3071138932836925, "loading_percent": 0.8530746234464083, "is_violation": false}, {"line_id": 3, "from_bus": 2, "to_bus": 4, "p_from_mw": 88.73860898431252, "q_from_mvar": -5.592132728167591, "loading_percent": 0.8594522932718651, "is_violation": false}, {"line_id": 4, "from_bus": 2, "to_bus": 5, "p_from_mw": 13.152944835910851, "q_from_mvar": 8.929374037649291, "loading_percent": 0.17627569717353458, "is_violation": false}, {"line_id": 5, "from_bus": 3, "to_bus": 4, "p_from_mw": -7.801216886584125, "q_from_mvar": 0.4571977770758153, "loading_percent": 0.0799040672127625, "is_violation": false}, {"line_id": 6, "from_bus": 4, "to_bus": 5, "p_from_mw": 0.0, "q_from_mvar": 0.0, "loading_percent": 0.0, "is_violation": false}, {"line_id": 7, "from_bus": 6, "to_bus": 11, "p_from_mw": 17.35000966656725, "q_from_mvar": 1.68580550025189, "loading_percent": 0.16455883619027628, "is_violation": false}, {"line_id": 8, "from_bus": 6, "to_bus": 12, "p_from_mw": 9.457630104844688, "q_from_mvar": 2.225713806672661, "loading_percent": 0.09172090560303924, "is_violation": false}, {"line_id": 9, "from_bus": 6, "to_bus": 13, "p_from_mw": 23.622858224561487, "q_from_mvar": 6.67237622850486, "loading_percent": 0.23172942797843862, "is_violation": false}, {"line_id": 10, "from_bus": 9, "to_bus": 10, "p_from_mw": -4.925497437372617, "q_from_mvar": 6.546691023821614, "loading_percent": 0.07910602498080041, "is_violation": false}, {"line_id": 11, "from_bus": 9, "to_bus": 14, "p_from_mw": 4.009445932556859, "q_from_mvar": 5.615009725471894, "loading_percent": 0.06662025307468503, "is_violation": false}, {"line_id": 12, "from_bus": 10, "to_bus": 11, "p_from_mw": -13.71955380441873, "q_from_mvar": 0.8401574224608783, "loading_percent": 0.13320075287743344, "is_violation": false}, {"line_id": 13, "from_bus": 12, "to_bus": 13, "p_from_mw": 2.8099752242868288, "q_from_mvar": 0.29772511863419754, "loading_percent": 0.027079985238070006, "is_violation": false}, {"line_id": 14, "from_bus": 13, "to_bus": 14, "p_from_mw": 12.42381347496479, "q_from_mvar": 0.40783121405070094, "loading_percent": 0.11985988326997037, "is_violation": false}, {"line_id": 100000, "from_bus": 4, "to_bus": 7, "p_from_mw": 19.35762959847247, "q_from_mvar": -9.541798289706627, "loading_percent": 0.21511472517065475, "is_violation": false}, {"line_id": 100001, "from_bus": 4, "to_bus": 9, "p_from_mw": 11.06340111929085, "q_from_mvar": 0.25408664749923543, "loading_percent": 0.11030379820221488, "is_violation": false}, {"line_id": 100002, "from_bus": 5, "to_bus": 6, "p_from_mw": 60.84395533676638, "q_from_mvar": 14.584887863371323, "loading_percent": 0.6196307031249485, "is_violation": false}, {"line_id": 100003, "from_bus": 7, "to_bus": 8, "p_from_mw": -9.50636894845929e-14, "q_from_mvar": -20.28518549567668, "loading_percent": 0.1940040585252249, "is_violation": false}, {"line_id": 100004, "from_bus": 7, "to_bus": 9, "p_from_mw": 19.35762959785903, "q_from_mvar": 9.83622708774379, "loading_percent": 0.20766269659551095, "is_violation": false}], "total_generation_mw": 273.78814895334153, "total_load_mw": 257.68479600863566, "total_loss_mw": 16.103352953980668, "voltage_violations": [{"bus_id": 1, "vm_pu": 1.06, "va_deg": 0.0, "is_violation": true, "violation_type": "overvoltage"}, {"bus_id": 6, "vm_pu": 1.0699999999999998, "va_deg": -14.104433561916972, "is_violation": true, "violation_type": "overvoltage"}, {"bus_id": 7, "vm_pu": 1.056167923239874, "va_deg": -16.416735992907814, "is_violation": true, "violation_type": "overvoltage"}, {"bus_id": 8, "vm_pu": 1.09, "va_deg": -16.416735992907807, "is_violation": true, "violation_type": "overvoltage"}, {"bus_id": 11, "vm_pu": 1.0519150154911188, "va_deg": -15.779844959238803, "is_violation": true, "violation_type": "overvoltage"}, {"bus_id": 12, "vm_pu": 1.0540057781836327, "va_deg": -15.194643334393785, "is_violation": true, "violation_type": "overvoltage"}], "thermal_violations": [], "summary_text": "", "solver_backend": "pandapower", "llm_prompt": null, "llm_response": null}

--- round 3 ---
[assistant]   (3618 in / 46 out tokens, 2.3 s)
(no text)
tool_call  run_powerflow()
[tool run_powerflow]   (gate: pass)
{"case_name": "case14", "converged": true, "bus_voltages": [{"bus_id": 1, "vm_pu": 1.06, "va_deg": 0.0, "is_violation": true, "violation_type": "overvoltage"}, {"bus_id": 2, "vm_pu": 1.045, "va_deg": -5.681731966638622, "is_violation": false, "violation_type": null}, {"bus_id": 3, "vm_pu": 1.01, "va_deg": -15.08547947871446, "is_violation": false, "violation_type": null}, {"bus_id": 4, "vm_pu": 1.0133920718015985, "va_deg": -14.296921577503323, "is_violation": false, "violation_type": null}, {"bus_id": 5, "vm_pu": 1.0199560159865828, "va_deg": -6.579982171116055, "is_violation": false, "violation_type": null}, {"bus_id": 6, "vm_pu": 1.0699999999999998, "va_deg": -14.104433561916972, "is_violation": true, "violation_type": "overvoltage"}, {"bus_id": 7, "vm_pu": 1.056167923239874, "va_deg": -16.416735992907814, "is_violation": true, "violation_type": "overvoltage"}, {"bus_id": 8, "vm_pu": 1.09, "va_deg": -16.416735992907807, "is_violation": true, "violation_type": "overvoltage"}, {"bus_id": 9, "vm_pu": 1.0461168779722951, "va_deg": -17.52112145958209, "is_violation": false, "violation_type": null}, {"bus_id": 10, "vm_pu": 1.0423436165259659, "va_deg": -17.192999816967905, "is_violation": false, "violation_type": null}, {"bus_id": 11, "vm_pu": 1.0519150154911188, "va_deg": -15.779844959238803, "is_violation": true, "violation_type": "overvoltage"}, {"bus_id": 12, "vm_pu": 1.0540057781836327, "va_deg": -15.194643334393785, "is_violation": true, "violation_type": "overvoltage"}, {"bus_id": 13, "vm_pu": 1.0475620234562137, "va_deg": -15.451968234985822, "is_violation": false, "violation_type": null}, {"bus_id": 14, "vm_pu": 1.0267386559802785, "va_deg": -17.71868001546817, "is_violation": false, "violation_type": null}], "line_flows": [{"line_id": 0, "from_bus": 1, "to_bus": 2, "p_from_mw": 178.0518253081255, "q_from_mvar": -25.214943392596073, "loading_percent": 1.7136304452293578, "is_violation": false}, {"line_id": 1, "from_bus": 1, "to_bus": 5, "p_from_mw": 57.55218398169728, "q_from_mvar": 5.518263414295722, "loading_percent": 0.5553691857554582, "is_violation": false}, {"line_id": 2, "from_bus": 2, "to_bus": 3, "p_from_mw": 88.22467430446355, "q_from_mvar": 2.3071138932836925, "loading_percent": 0.8530746234464083, "is_violation": false}, {"line_id": 3, "from_bus": 2, "to_bus": 4, "p_from_mw": 88.73860898431252, "q_from_mvar": -5.592132728167591, "loading_percent": 0.8594522932718651, "is_violation": false}, {"line_id": 4, "from_bus": 2, "to_bus": 5, "p_from_mw": 13.152944835910851, "q_from_mvar": 8.929374037649291, "loading_percent": 0.17627569717353458, "is_violation": false}, {"line_id": 5, "from_bus": 3, "to_bus": 4, "p_from_mw": -7.801216886584125, "q_from_mvar": 0.4571977770758153, "loading_percent": 0.0799040672127625, "is_violation": false}, {"line_id": 6, "from_bus": 4, "to_bus": 5, "p_from_mw": 0.0, "q_from_mvar": 0.0, "loading_percent": 0.0, "is_violation": false}, {"line_id": 7, "from_bus": 6, "to_bus": 11, "p_from_mw": 17.35000966656725, "q_from_mvar": 1.68580550025189, "loading_percent": 0.16455883619027628, "is_violation": false}, {"line_id": 8, "from_bus": 6, "to_bus": 12, "p_from_mw": 9.457630104844688, "q_from_mvar": 2.225713806672661, "loading_percent": 0.09172090560303924, "is_violation": false}, {"line_id": 9, "from_bus": 6, "to_bus": 13, "p_from_mw": 23.622858224561487, "q_from_mvar": 6.67237622850486, "loading_percent": 0.23172942797843862, "is_violation": false}, {"line_id": 10, "from_bus": 9, "to_bus": 10, "p_from_mw": -4.925497437372617, "q_from_mvar": 6.546691023821614, "loading_percent": 0.07910602498080041, "is_violation": false}, {"line_id": 11, "from_bus": 9, "to_bus": 14, "p_from_mw": 4.009445932556859, "q_from_mvar": 5.615009725471894, "loading_percent": 0.06662025307468503, "is_violation": false}, {"line_id": 12, "from_bus": 10, "to_bus": 11, "p_from_mw": -13.71955380441873, "q_from_mvar": 0.8401574224608783, "loading_percent": 0.13320075287743344, "is_violation": false}, {"line_id": 13, "from_bus": 12, "to_bus": 13, "p_from_mw": 2.8099752242868288, "q_from_mvar": 0.29772511863419754, "loading_percent": 0.027079985238070006, "is_violation": false}, {"line_id": 14, "from_bus": 13, "to_bus": 14, "p_from_mw": 12.42381347496479, "q_from_mvar": 0.40783121405070094, "loading_percent": 0.11985988326997037, "is_violation": false}, {"line_id": 100000, "from_bus": 4, "to_bus": 7, "p_from_mw": 19.35762959847247, "q_from_mvar": -9.541798289706627, "loading_percent": 0.21511472517065475, "is_violation": false}, {"line_id": 100001, "from_bus": 4, "to_bus": 9, "p_from_mw": 11.06340111929085, "q_from_mvar": 0.25408664749923543, "loading_percent": 0.11030379820221488, "is_violation": false}, {"line_id": 100002, "from_bus": 5, "to_bus": 6, "p_from_mw": 60.84395533676638, "q_from_mvar": 14.584887863371323, "loading_percent": 0.6196307031249485, "is_violation": false}, {"line_id": 100003, "from_bus": 7, "to_bus": 8, "p_from_mw": -9.50636894845929e-14, "q_from_mvar": -20.28518549567668, "loading_percent": 0.1940040585252249, "is_violation": false}, {"line_id": 100004, "from_bus": 7, "to_bus": 9, "p_from_mw": 19.35762959785903, "q_from_mvar": 9.83622708774379, "loading_percent": 0.20766269659551095, "is_violation": false}], "total_generation_mw": 273.78814895334153, "total_load_mw": 257.68479600863566, "total_loss_mw": 16.103352953980668, "voltage_violations": [{"bus_id": 1, "vm_pu": 1.06, "va_deg": 0.0, "is_violation": true, "violation_type": "overvoltage"}, {"bus_id": 6, "vm_pu": 1.0699999999999998, "va_deg": -14.104433561916972, "is_violation": true, "violation_type": "overvoltage"}, {"bus_id": 7, "vm_pu": 1.056167923239874, "va_deg": -16.416735992907814, "is_violation": true, "violation_type": "overvoltage"}, {"bus_id": 8, "vm_pu": 1.09, "va_deg": -16.416735992907807, "is_violation": true, "violation_type": "overvoltage"}, {"bus_id": 11, "vm_pu": 1.0519150154911188, "va_deg": -15.779844959238803, "is_violation": true, "violation_type": "overvoltage"}, {"bus_id": 12, "vm_pu": 1.0540057781836327, "va_deg": -15.194643334393785, "is_violation": true, "violation_type": "overvoltage"}], "thermal_violations": [], "summary_text": "", "solver_backend": "pandapower", "llm_prompt": null, "llm_response": null}

--- round 4 ---
[assistant]   (6177 in / 271 out tokens, 4.3 s)
The IEEE 14-bus AC power flow converged after disconnecting line 4–5, and no in-service line was loaded above 90%.

**Key numbers**
- Total load: **257.685 MW**
- Total generation: **273.788 MW**
- Total losses: **16.103 MW**
- Voltage range: **1.010–1.090 p.u.**

**Violations**
- Lines above 90% loading: **None**
- Thermal violations: **None**
- Overvoltage buses: **1 (1.060 p.u.), 6 (1.070 p.u.), 7 (1.056 p.u.), 8 (1.090 p.u.), 11 (1.052 p.u.), and 12 (1.054 p.u.)**

**Suggested next step:** Review generator voltage setpoints or run remedial-action analysis to reduce the overvoltages.

[final answer]
The IEEE 14-bus AC power flow converged after disconnecting line 4–5, and no in-service line was loaded above 90%.

**Key numbers**
- Total load: **257.685 MW**
- Total generation: **273.788 MW**
- Total losses: **16.103 MW**
- Voltage range: **1.010–1.090 p.u.**

**Violations**
- Lines above 90% loading: **None**
- Thermal violations: **None**
- Overvoltage buses: **1 (1.060 p.u.), 6 (1.070 p.u.), 7 (1.056 p.u.), 8 (1.090 p.u.), 11 (1.052 p.u.), and 12 (1.054 p.u.)**

**Suggested next step:** Review generator voltage setpoints or run remedial-action analysis to reduce the overvoltages.

[verification gate]   outcome: pass_first after 1 attempt(s)
attempt 1: pass
  V1  converged              pass  residual 0
  V2  balance                pass  residual 9.27e-09
  V3  no_isolated_buses      pass  residual 0
  V4  faithfulness           pass  residual 0
  V5  currency               pass  residual 0
  V6  argument_grounding     pass  every mutating-tool argument traces to the request or a prior tool output
  V7  claims_from_tools      pass  answer matches the agent's own last solved state
